 &time_control
 run_days                            = 99,
 run_hours                           = 2376,
 run_minutes                         = 0,
 run_seconds                         = 0,
 start_year                          = 2018, 2018, 2018,
 start_month                         = 05,   05,   05,  
 start_day                           = 25,   25,   25, 
 start_hour                          = 00,   00,   00, 
 end_year                            = 2018, 2018, 2018,
 end_month                           = 09,   09,   09, 
 end_day                             = 01,   01,   01,
 end_hour                            = 00,   00,   00, 
 interval_seconds                    = 21600
 input_from_file                     = .true.,.true.,.true.,
 history_interval                    = 180,  180,   60, 
 frames_per_outfile                  = 1, 1, 1,
 restart                             = .false.,
 restart_interval                    = 1440,
 io_form_history                     = 2
 io_form_restart                     = 2
 io_form_input                       = 2
 io_form_boundary                    = 2
 !debug_level                         = 0
 iofields_filename                   = "output_fields_d1.txt","output_fields_d2.txt","output_fields_d3.txt",
 ignore_iofields_warning             = .true.,
 auxinput4_inname                    = "wrflowinp_d<domain>",
 auxinput4_interval                  = 360, 360, 360,
 io_form_auxinput4                   = 2
 /

 &domains
 time_step                           = 30,
 time_step_fract_num                 = 0,
 time_step_fract_den                 = 1,
 max_dom                             = 3,
 s_we                                = 1,     1,     1,
 e_we                                = 200,   253,   211,
 s_sn                                = 1,     1,     1,
 e_sn                                = 200,   241,   181,
 e_vert                              = 56,    56,    56,
 p_top_requested                     = 5000,
 num_metgrid_levels                  = 38,
 num_metgrid_soil_levels             = 4,
 dx                                  = 12000, 3000, 1000,
 dy                                  = 12000, 3000, 1000,
 grid_id                             = 1,     2,     3,
 parent_id                           = 0,     1,     2, 
 i_parent_start                      = 1,     75,    61,
 j_parent_start                      = 1,     75,    90, 
 parent_grid_ratio                   = 1,     4,     3, 
 parent_time_step_ratio              = 1,     4,     3,  
 feedback                            = 1,
 smooth_option                       = 0,
 !!! 71 levels 5 m tstep 12 s ptop 2000  == 1h/30min or 1h/22min with BEP only
 !!! 10% reduction from 80 to 120 proc / 25% to 160 proc / 50 % to 200 proc / 55 % to 240 proc
 !eta_levels                          = 1.000000000,     0.999418795,     0.998837829,     0.998257160,     0.997676790,
 !    0.997096717,     0.996516824,     0.995937288,     0.995357931,     0.994778872,
 !    0.994200110,     0.993621588,     0.992971063,     0.992239654,     0.991417229,
 !    0.990492761,     0.989453435,     0.988285244,     0.986972272,     0.985496819,
 !    0.983838975,     0.981976390,     0.979884326,     0.977534831,     0.974896848,
 !    0.971935689,     0.968612671,     0.964884698,     0.960704088,     0.956017613,
 !    0.950766444,     0.944885373,     0.938302755,     0.930939734,     0.922709584,
 !    0.913517773,     0.903261483,     0.891829371,     0.879101813,     0.864950776,
 !    0.849241078,     0.831830919,     0.812573791,     0.791320920,     0.767924368,
 !    0.742241502,     0.714140713,     0.683508754,     0.650259852,     0.614346504,
 !    0.575772882,     0.534609735,     0.491012096,     0.445237339,     0.397664249,
 !    0.348810673,     0.299438596,     0.255554616,     0.216679275,     0.182362854,
 !    0.152184606,     0.125751257,     0.102696538,     0.082679391,     0.065383792,
 !    0.050516963,     0.037809014,     0.027011335,     0.017895937,     0.010254622,
 !    0.000000000, 
 !!! 67 levels 5 m tstep 15 s ptop 5000  == 1h/20min
 !eta_levels                          = 1.000000000,     0.999400437,     0.998801172,     0.998202145,     0.997603476,
 !    0.997005045,     0.996406853,     0.995808959,     0.995211363,     0.994614005,
 !    0.994016945,     0.993420124,     0.992749095,     0.991994560,     0.991146207,
 !    0.990192533,     0.989120424,     0.987915277,     0.986560881,     0.985038817,
 !    0.983328640,     0.981407225,     0.979249120,     0.976825416,     0.974104106,
 !    0.971049428,     0.967621446,     0.963775814,     0.959463179,     0.954628706,
 !    0.949211657,     0.943144917,     0.936354458,     0.928758860,     0.920268834,
 !    0.910786748,     0.900206566,     0.888413489,     0.875283957,     0.860686123,
 !    0.844480276,     0.826520324,     0.806655109,     0.784731090,     0.760595620,
 !    0.734101713,     0.705113530,     0.673514307,     0.639215469,     0.602168024,
 !    0.562376201,     0.519913197,     0.474938750,     0.427718520,     0.378643155,
 !    0.328246772,     0.277315617,     0.232045829,     0.191942871,     0.156542778,
 !    0.125411510,     0.098143399,     0.074360609,     0.053711355,     0.035869598,
 !    0.020533323,     0.000000000,
 !!! 60 levels 10 m tstep 15 s ptop 2000 == 1h/17min
 !eta_levels                          = 1.000000000,     0.998837948,     0.997676909,     0.996517003,     0.995358109,
 !    0.994200349,     0.993043602,     0.991743565,     0.990282536,     0.988640845,
 !    0.986796498,     0.984724700,     0.982398033,     0.979785562,     0.976853013,
 !    0.973561943,     0.969869733,     0.965728879,     0.961086750,     0.955884874,
 !    0.950058818,     0.943537235,     0.936241686,     0.928086340,     0.918977022,
 !    0.908811629,     0.897479296,     0.884860814,     0.870828748,     0.855247974,
 !    0.837976873,     0.818868756,     0.797774255,     0.774544358,     0.749034882,
 !    0.721111894,     0.690659046,     0.657585979,     0.621839762,     0.583417118,
 !    0.542380333,     0.498873472,     0.453141451,     0.405548811,     0.356597543,
 !    0.306941569,     0.262219727,     0.222579718,     0.187567413,     0.156757653,
 !    0.129753053,     0.106182933,     0.085702777,     0.067992568,     0.052756071,
 !    0.039719701,     0.028631687,     0.019261003,     0.011396229,     0.000000000,
 !!! 56 levels 10 m tstep 30 s ptop 5000 == 1h/10min
 eta_levels                          = 1.000000000,     0.998801231,     0.997603536,     0.996406972,     0.995211542,
      0.994017184,     0.992823958,     0.991482794,     0.989975631,     0.988282144,
      0.986379504,     0.984242380,     0.981842160,     0.979147196,     0.976122022,
      0.972727060,     0.968918264,     0.964646637,     0.959857881,     0.954491794,
      0.948481739,     0.941754222,     0.934228301,     0.925815403,     0.916418433,
      0.905932009,     0.894241750,     0.881224811,     0.866749644,     0.850676894,
      0.832860351,     0.813148856,     0.791388154,     0.767424703,     0.741109610,
      0.712304950,     0.680890381,     0.646772981,     0.609897852,     0.570261896,
      0.527929187,     0.483048379,     0.435872257,     0.386776686,     0.336279571,
      0.285055518,     0.238921404,     0.198029578,     0.161911666,     0.130128920,
      0.102271557,     0.077957153,     0.056830287,     0.038560748,     0.022843063,
      0.000000000,
 sfcp_to_sfcp 			     = .true.
 /

 &physics
 mp_physics                          = 3,    3,    3, 
 cu_physics                          = 1,    0,    0, 
 ra_lw_physics                       = 1,    1,    1,
 ra_sw_physics                       = 1,    1,    1,
 bl_pbl_physics                      = 8,    8,    8,
 sf_sfclay_physics                   = 1,    1,    1,
 sf_surface_physics                  = 4,    4,    4, 
 radt                                = 30,   30,   30,
 bldt                                = 0,    0,    0,
 cudt                                = 5,    5,    5, 
 isfflx                              = 1,
 ifsnow                              = 0,
 icloud                              = 1,
 surface_input_source                = 1,
 num_soil_layers                     = 4,
 !num_urban_layers                    = 1040,
 num_land_cat                        = 41,
 sst_update                          = 1,
 sf_urban_physics                    = 3,    3,    3, 
 use_wudapt_lcz                      = 1,
 !sf_lake_physics                     = 1,
 tmn_update                          = 1,
 !fractional_seaice                   = 1,
 !seaice_threshold                    = 0,
 maxiens                             = 1,
 maxens                              = 3,
 maxens2                             = 3,
 maxens3                             = 16,
 ensdim                              = 144,
 /

 &noah_mp
 !!! We only use default LSM parameters
 /

 &fdda
 /

 &dynamics
 w_damping                           = 0,
 diff_opt                            = 1,
 km_opt                              = 4,
 diff_6th_opt                        = 1,      1,      1,   
 diff_6th_factor                     = 0.12,   0.12,   0.12, 
 base_temp                           = 290.
 damp_opt                            = 0,
 zdamp                               = 5000.,  5000.,  5000.,
 dampcoef                            = 0.2,    0.2,    0.2,  
 khdif                               = 0,      0,      0,
 kvdif                               = 0,      0,      0,
 non_hydrostatic                     = .true., .true., .true.,
 moist_adv_opt                       = 1,      1,      1,
 scalar_adv_opt                      = 1,      1,      1, 
 /

 &bdy_control
 spec_bdy_width                      = 5,
 spec_zone                           = 1,
 relax_zone                          = 4,
 specified                           = .true., .false., .false.,
 nested                              = .false., .true., .true.,
 /

 &grib2
 /

 &namelist_quilt
 nio_tasks_per_group = 0,
 nio_groups = 1,
 /
